data/case13_mat/load_base/case.m
% 13 bus radial network (thesis)
% tests bus_names

function tppmc = case13
tppmc.version = '1'

tppmc.baseMVA = 0.1666666667;
tppmc.baseKV = 4.16;

%%  Bus data:
%	bus_i	type	vmin_1	vmax_1	vmin_2	vmax_2	vmin_3	vmax_3	vm_1	va_1	vm_2	va_2	vm_3	va_3
tppmc.bus = [
1	1	0.90	 1.10	 0.90	 1.10	 0.90	 1.10	 1	0.00 	 1	-120.00	 1	120.00;
2	1	0.90	 1.10	 0.90	 1.10	 0.90	 1.10	 1	0.00 	 1	-120.00	 1	120.00;
3	1	0.90	 1.10	 0.90	 1.10	 0.90	 1.10	 1	0.00 	 1	-120.00	 1	120.00;
4	1	0.90	 1.10	 0.90	 1.10	 0.90	 1.10	 1	0.00 	 1	-120.00	 1	120.00;
5	1	0.00	 0.00	 0.90	 1.10	 0.90	 1.10	 0	 0.0 	 1	-120.00	 1	120.00;
6	1	0.00	 0.00	 0.90	 1.10	 0.90	 1.10	 0	 0.0 	 1	-120.00	 1	120.00;
7	1	0.90	 1.10	 0.90	 1.10	 0.90	 1.10	 1	0.00 	 1	-120.00	 1	120.00;
8	1	0.90	 1.10	 0.90	 1.10	 0.90	 1.10	 1	0.00 	 1	-120.00	 1	120.00;
9	1	0.90	 1.10	 0.00	 0.00	 0.90	 1.10	 1	0.00 	 0	 0.0	 1	120.00;
10	1	0.00	 0.00	 0.00	 0.00	 0.90	 1.10	 0	 0.0 	 0	 0.0	 1	120.00;
11	1	0.90	 1.10	 0.00	 0.00	 0.00	 0.00	 1	0.00 	 0	 0.0	 0	 0.0;
12	1	0.90	 1.10	 0.90	 1.10	 0.90	 1.10	 1	0.00 	 1	-120.00	 1	120.00;
13	1	0.90	 1.10	 0.90	 1.10	 0.90	 1.10	 1	0.00 	 1	-120.00	 1	120.00;
14	1	0.90	 1.10	 0.90	 1.10	 0.90	 1.10	 1	0.00 	 1	-120.00	 1	120.00;
15	3	0.90	 1.10	 0.90	 1.10	 0.90	 1.10	 1	0.00 	 1	-120.00	 1	120.00;
];

%%  Generator data:
%	gen_bus	pmin_1	pmax_1	qmin_1	qmax_1	pmin_2	pmax_2	qmin_2	qmax_2	pmin_3	pmax_3	qmin_3	qmax_3	pg_1	qg_1	pg_2	qg_2	pg_3	qg_3	status
tppmc.gen = [
15	0	5	 -5	5	0	5	 -5	5	 0	5	 -5	5	 0.00 0.00	 0.00	0.00 0.00 0.00	 1;
2	0	0	 -10	10	0	0	 -10	10	 0	0	 -10	10	 0.00 0.00	 0.00	0.00 0.00 0.00	 1;
];

%% load data
%	load_bus	pd_1	qd_1	pd_2	qd_2	pd_3	qd_3	status
tppmc.load = [
%	4	 0.0380	 0.0125	 0.0160	 0.0120	 0.0595	 0.0369	 1;
%	5	 0.0425	 0.0263	 0.027	 0.0131	 0.0950	 0.0312	 1;
];

%% generator cost data
%	2	startup	shutdown	n	c(n-1)	...	c0
tppmc.gencost = [
	2	 0.0	 0.0	 3	 0.110	 5.0	 0.0;
	2	 0.0	 0.0	 3	 0.110	 5.0	 0.0;
];

%%  Line branch data:
%	f_bus	t_bus	r_11	x_11	r_12	x_12	r_13	x_13	r_22	x_22	r_23	x_23	r_33	x_33   b_1    b_2    b_3    rate_a	rate_b	rate_c	angmin	angmax	status
tppmc.branch = [1	2	0.00379212510000000	0.0111399831000000	0.00341455420000000	0.0109812938000000	0.00345833060000000	0.00927182800000000	0.00369362830000000	0.0114672112000000	0.00335983380000000	0.00842475580000000	0.00373631030000000	0.0113249381000000	8.25923000000000e-05	7.81335000000000e-05	7.39238000000000e-05	0	0	0	-60	60	1;
2	5	0	0	0	0	0	0	0.00363726630000000	0.00368569390000000	0.00113052380000000	0.00251221440000000	0.00362194460000000	0.00371250690000000	0	1.54364000000000e-05	1.52925000000000e-05	0	0	0	-60	60	1;
2	3	0.00205912940000000	0.00323233520000000	0.000864582600000000	0.00231795700000000	0.000853638600000000	0.00274532340000000	0.00204517570000000	0.00327857400000000	0.000839958400000000	0.00210618900000000	0.00203450520000000	0.00331386860000000	1.86789000000000e-05	1.69762000000000e-05	1.77795000000000e-05	0	0	0	-60	60	1;
5	6	0	0	0	0	0	0	0.00218235980000000	0.00221141630000000	0.000678314400000000	0.00150732860000000	0.00217316680000000	0.00222750410000000	0	9.26180000000000e-06	9.17550000000000e-06	0	0	0	-60	60	1;
9	11	0.00587697310000000	0.00224309940000000	0	0	0	0	0	0	0	0	0	0	0.000466680600000000	0	0	0	0	0	-60	60	1;
7	9	0.00217316680000000	0.00222750410000000	0	0	0.000678314400000000	0.00150732860000000	0	0	0	0	0.00218235980000000	0.00221141630000000	9.17550000000000e-06	0	9.26180000000000e-06	0	0	0	-60	60	1;
7	8	0.00189606250000000	0.00556999150000000	0.00170727700000000	0.00549064700000000	0.00172916520000000	0.00463591400000000	0.00184681420000000	0.00573360560000000	0.00167991680000000	0.00421237800000000	0.00186815510000000	0.00566246900000000	4.12961000000000e-05	3.90667000000000e-05	3.69619000000000e-05	0	0	0	-60	60	1;
9	10	0	0	0	0	0	0	0	0	0	0	0.00218203150000000	0.00221207300000000	0	0	8.88740000000000e-06	0	0	0	-60	60	1;
12	13	0.00218389200000000	0.00122108620000000	0.00174667580000000	0.000179483000000000	0.00155898480000000	-7.82502000000000e-05	0.00215899420000000	0.00110562610000000	0.00174667580000000	0.000179483000000000	0.00218389200000000	0.00122108620000000	0.000317563300000000	0.000317563300000000	0.000317563300000000	0	0	0	-60	60	1;
2	14	0.000344738600000000	0.00101272570000000	0.000310414000000000	0.000998299400000000	0.000314393600000000	0.000842893400000000	0.000335784400000000	0.00104247370000000	0.000305439400000000	0.000765886800000000	0.000339664600000000	0.00102953980000000	7.50840000000000e-06	7.10300000000000e-06	6.72030000000000e-06	0	0	0	-60	60	1;
14	7	0.000344738600000000	0.00101272570000000	0.000310414000000000	0.000998299400000000	0.000314393600000000	0.000842893400000000	0.000335784400000000	0.00104247370000000	0.000305439400000000	0.000765886800000000	0.000339664600000000	0.00102953980000000	7.50840000000000e-06	7.10300000000000e-06	6.72030000000000e-06	0	0	0	-60	60	1;
7	12	1.00000000000000e-05	1.00000000000000e-05	0	0	0	0	1.00000000000000e-05	1.00000000000000e-05	0	0	1.00000000000000e-05	1.00000000000000e-05	0	0	0	0	0	0	-60	60	1;
3	4	0.011	0.02	0	0	0	0	0.011	0.02	0	0	0.011	0.02	0	0	0	0	0	0	-60	60	1;
15	1	0.0001	0.0001	0	0	0	0	0.0001	0.0001	0	0	0.0001	0.0001	0	0	0	0	0	0	-60	60	1];

end